<?xml version="1.0" encoding="UTF-8"?>

<net version="1.6" junctionCornerDetail="5" limitTurnSpeed="5.50" xmlns:xsi="http://www.w3.org/2001/XMLSchema-instance" xsi:noNamespaceSchemaLocation="http://sumo.dlr.de/xsd/net_file.xsd">

    <location netOffset="0.00,0.00" convBoundary="0.00,50.00,300.00,50.00" origBoundary="10000000000.00,10000000000.00,-10000000000.00,-10000000000.00" projParameter="!"/>

    <edge id="0to1" from="node0" to="node1" priority="-1">
        <lane id="0to1_0" index="0" speed="40" length="1200.00" width="4.00" shape="0.00,42.00 1200.00,42.00" disallow="pedestrian tram rail_urban rail rail_electric rail_fast ship"/>
        <lane id="0to1_1" index="1" speed="40" length="1200.00" width="4.00" shape="0.00,46.00 1200.00,46.00" disallow="pedestrian tram rail_urban rail rail_electric rail_fast ship"/>
    </edge>

    <junction id="node0" type="dead_end" x="0.00" y="50.00" incLanes="" intLanes="" shape="0.00,48.00 0.00,40.00"/>
    <junction id="node1" type="dead_end" x="300.00" y="50.00" incLanes="0to1_0 0to1_1" intLanes="" shape="1200.00,40.00 1200.00,48.00"/>

</net>
